Vin1     6       5       7      0       0       0
Vin2     1       0       4      0       0       0
Vin3     1       4       1      0       0       0
Vin4     1       3       3      0       0       0
R1      2       0       1
R2      3       0       3
R3      2       4       9
R4      2       4       5
R5      2       1       11
R6      0       6       4
R7      2       5       7
dV      1m
dI      1m
dT      1m
.tran   15m