Iin     1       0       10      0       0       0
R1      0       2       15
R2      1       2       5
R3      2       3       10
R4      1       3       15
F1      3       0       Iin     3.5
dV      1m
dI      1m
dT      1m
.tran   15m