Iin     1       0       45      0       0       0
R1      0       1       1
R2      1       2       2
R3      0       2       2
R4      1       3       3
R5      2       3       2
R6      0       3       1
dV      1m
dI      1m
dT      1u
.tran   15m