Iin     1       0       3m      0       0       0
R1      1       2       1k
R2      0       2       1k
R3      0       2       1k
dV      1m
dI      1u
dT      1u
.tran   15m