Iin     1       0       7      0       0       0
R1      0       1       1
R3      0       2       3
R4      3       3       2
R5      0       3       4
F1      2       1       R5     2
G2      3       0       1       0       3
dV      1m
dI      1m
dT      1m
.tran   15m