Iin     1       0       10      0       0       0
R1      1       0       2
R2      1       2       1
R3      0       2       1
dV      1m
dI      1m
dT      1u
.tran   15m