Iin     1       0       0      7       1       0
R1      0       1       1
R2      0       2       3
R3      2       3       2
R4      3       0       4
I1      2       1       0       6       1       0
I2      2       0       0       3       1       0
dV      1m
dI      1m
dT      1m
.tran   2