Iin     1       0       7      0       1       0
R1      0       1       1
R2      0       2       3
R3      2       3       2
R4      3       0       4
F1      2       1       R4     2
G2      2       0       1       0       3
dV      1m
dI      1m
dT      1m
.tran   1
