I1	1	0	10	0	0	0
R1     0       1       1
R2     0       1       1
R3     0       1       1
R4     0       1       1
R5     0       1       1
R6     0       1       1
R7     0       1       1
R8     0       1       1
R9   0       1       1
R10     0       1       1
dV      1m
dI      1m
dT      1m
.tran   5
