I1	1	0	1	0	0	0
R1     0       1       1
C1	0	1	1
dV      1u
dI      1m
dT      1m
.tran   5
