I1     1       0       1      0       0       0
R1      0       1       1
C1	0	1	1
dV      0.1u
dI      100u
dT      1m
.tran   8
