Iin     1       0       10      0       0       0
R1      0       1       1
R2      0       1       1
R3      0       1       1
R4      0       1       1
R5      0       1       1
R6      0       1       1
R7      0       1       1
R8      0       1       1
R9      0       1       1
R10      0       1       1
R11      0       1       1
R12      0       1       1
dV      10u
dI      10u
dT      100u
.tran   10m
