Iin     1       0       10      0       0       0
R1      0       1       1
C1	    0	    1 	    1
dV      10u
dI      10m
dT      1m
.tran   5
