Vin1     2       0      0     4       1       0
R1      2       1       1
R2      1       0       3
R3      1       0       3
R4      2       3       3
R5      3       0       3
R6      2       0       3
R7      2       0       3
dV      1m
dI      1m
dT      1m
.tran   1000m
