Vin1     2       1       1      4       1       0
Vin2     1       0       4      0       0       0
R1      2       0       1
R2      1       0       3
dV      1u
dI      10m
dT      1m
.tran   1000m
