Iin1     1      0       3m     0       0       0
R1      2       1       4k
R2      3       2       4k
R3      1       3       1k
R4      2       0       1k
R5      3       0       2k
dV      1m
dI      1u
dT      100u
.tran   1000m
